Circuit: * C:\users\crossover\Desktop\My Mac Desktop\rf_dummy_50ohm_20W\4_Electrical\rev1\sim\peak_detector.asc

Direct Newton iteration for .op point succeeded.

Date: Wed Dec 23 00:17:39 2020
Total elapsed time: 0.227 seconds.

tnom = 27
temp = 27
method = modified trap
totiter = 37000
traniter = 36993
tranpoints = 16558
accept = 12759
rejected = 3799
matrix size = 11
fillins = 0
solver = Normal
Matrix Compiler1:      27 opcodes  0.2/[0.1]/0.2
Matrix Compiler2: 759 bytes object code size  0.2/0.2/[0.1]

