Circuit: * C:\users\crossover\Desktop\My Mac Desktop\rf_dummy_50ohm_20W\4_Electrical\rev1\sim\peak_detector_diode_comp_ver2.asc

.OP point found by inspection.

Date: Thu Dec 31 11:12:27 2020
Total elapsed time: 0.067 seconds.

tnom = 27
temp = 27
method = modified trap
totiter = 15791
traniter = 15791
tranpoints = 4496
accept = 3009
rejected = 1487
matrix size = 7
fillins = 0
solver = Normal
Matrix Compiler1: 268 bytes object code size  0.1/0.1/[0.1]
Matrix Compiler2: 455 bytes object code size  0.1/0.1/[0.1]

