Circuit: * C:\users\crossover\Desktop\My Mac Desktop\rf_dummy_50ohm_20W\4_Electrical\rev1\sim\peak_detector_rev1.asc

Direct Newton iteration for .op point succeeded.

Date: Wed Dec 23 13:16:26 2020
Total elapsed time: 55.141 seconds.

tnom = 27
temp = 27
method = modified trap
totiter = 22740675
traniter = 22740668
tranpoints = 8105659
accept = 5602617
rejected = 2503042
matrix size = 13
fillins = 0
solver = Normal
Matrix Compiler1: 568 bytes object code size  0.2/0.2/[0.2]
Matrix Compiler2: off  [0.1]/0.2/0.2

