Circuit: * C:\users\crossover\Desktop\My Mac Desktop\rf_dummy_50ohm_20W\4_Electrical\rev1\sim\peak_detector_diode_comp_ver3.asc

Direct Newton iteration for .op point succeeded.

Date: Thu Dec 31 14:59:48 2020
Total elapsed time: 0.505 seconds.

tnom = 27
temp = 27
method = modified trap
totiter = 166287
traniter = 166282
tranpoints = 45188
accept = 29337
rejected = 15851
matrix size = 5
fillins = 0
solver = Normal
Matrix Compiler1: 150 bytes object code size  0.1/0.1/[0.1]
Matrix Compiler2: 321 bytes object code size  0.1/0.1/[0.1]

