Circuit: * C:\users\crossover\Desktop\My Mac Desktop\rf_dummy_50ohm_20W\4_Electrical\sim\peak_detector_txline.asc

WARNING: Node N001 is floating.

Direct Newton iteration for .op point succeeded.
Heightened Def Con from 0.000570078 to 0.000570078
Heightened Def Con from 0.000666683 to 0.000666683
Heightened Def Con from 0.000981178 to 0.000981178

Date: Thu Jan 21 14:19:27 2021
Total elapsed time: 6.432 seconds.

tnom = 27
temp = 27
method = modified trap
totiter = 3827475
traniter = 3827469
tranpoints = 1401035
accept = 937357
rejected = 463681
matrix size = 10
fillins = 5
solver = Normal
Matrix Compiler1: 670 bytes object code size  0.2/0.1/[0.1]
Matrix Compiler2: off  [0.1]/0.1/0.1

