Circuit: * C:\users\crossover\Desktop\My Mac Desktop\rf_dummy_50ohm_20W\4_Electrical\rev1\sim\peak_detector_diode_comp.asc

.OP point found by inspection.

Date: Thu Dec 31 17:54:02 2020
Total elapsed time: 0.456 seconds.

tnom = 27
temp = 40
method = modified trap
totiter = 208265
traniter = 208265
tranpoints = 55206
accept = 36145
rejected = 19061
matrix size = 7
fillins = 0
solver = Normal
Matrix Compiler1: 250 bytes object code size  0.1/0.1/[0.1]
Matrix Compiler2: 467 bytes object code size  0.1/0.1/[0.1]

