Circuit: * C:\users\crossover\Desktop\My Mac Desktop\rf_dummy_50ohm_20W\4_Electrical\rev1\sim\peak_detector_double_diode.asc

.OP point found by inspection.

Date: Thu Dec 24 17:18:46 2020
Total elapsed time: 16.602 seconds.

tnom = 27
temp = 27
method = modified trap
totiter = 7475069
traniter = 7475069
tranpoints = 2624488
accept = 1771205
rejected = 853283
matrix size = 8
fillins = 0
solver = Normal
Matrix Compiler1: 300 bytes object code size  0.3/0.2/[0.2]
Matrix Compiler2: 540 bytes object code size  0.2/0.3/[0.2]

