Circuit: * C:\users\crossover\Desktop\My Mac Desktop\rf_dummy_50ohm_20W\4_Electrical\rev1\sim\peak_detector_rev2.asc

Direct Newton iteration for .op point succeeded.

Date: Wed Dec 23 13:32:22 2020
Total elapsed time: 73.888 seconds.

tnom = 27
temp = 27
method = modified trap
totiter = 31194771
traniter = 31194764
tranpoints = 11854616
accept = 8093634
rejected = 3760982
matrix size = 15
fillins = 0
solver = Normal
Matrix Compiler1: 668 bytes object code size  0.2/0.2/[0.2]
Matrix Compiler2: 1.02 KB object code size  0.2/0.3/[0.2]

