Circuit: * C:\users\crossover\Desktop\My Mac Desktop\rf_dummy_50ohm_20W\4_Electrical\rev1\sim\peak_detector_with_buffer.asc

Direct Newton iteration for .op point succeeded.
Heightened Def Con from 0.00206485 to 0.00206485

Date: Mon Dec 28 10:07:58 2020
Total elapsed time: 9.079 seconds.

tnom = 27
temp = 27
method = modified trap
totiter = 2625301
traniter = 2625286
tranpoints = 1161250
accept = 793753
rejected = 367498
matrix size = 16
fillins = 3
solver = Normal
Matrix Compiler1: 722 bytes object code size  0.2/0.1/[0.1]
Matrix Compiler2: 1.22 KB object code size  0.1/0.2/[0.1]

